"""
A Multi-Component Wide Distillation Fuel (Covering Gasoline, Jet Fuel and Diesel Fuel) Mechanism for Combustion and PAH Prediction
Shuojin Ren, Sage L. Kokjohn, Zhi Wang, Haoye Liu, Buyu Wang, Jianxin Wang
Submitted to Fuel

"""

units(length='cm', time='s', quantity='mol', act_energy='cal/mol')

ideal_gas(name='gas',
          elements="H C O N Ar",
          species="""nc7h16         o2             n2
                     co2            h2o            co
                     h2             oh             h2o2
                     ho2            h              o
                     ch3o           ch2o           hco
                     ch             ch2            ch3
                     ch4            c2h2           c2h3
                     c2h4           c2h5           hcco
                     ch2co          ch3co          ch3cho
                     ch2cho         ch3o2          ch3oh
                     ch2oh          ch3o2h         c2h6
                     c3h3           ic8h18         c3h4
                     c3h5           c3h6           nc3h7
                     c4h8           pc4h9          c5h10
                     nc3h7cho       nc3h7co        c7h15-2
                     c7h15o2-2      c7h14ooh2-4    c7h14ooh2-4o2
                     nc7ket24       ac8h17         ac8h17o2
                     ac8h16ooh-b    ic8eterab      ac8h16ooh-bo2
                     ic8ketab       ic4h9          tc4h9
                     ic4h8          ic4h7          ic4h7o
                     ic4h6oh        ic3h7cho       ic3h7co
                     ic3h7          ic3h5cho       ic3h5co
                     ch2cch2oh      tc3h6cho       tc3h6o2cho
                     tc3h6o2hco     ch3coch3       ch3coch2
                     ch3coch2o2     c3ket21        c7h8
                     c6h5ch2        c6h4ch3        oc6h4ch3
                     hoc6h4ch3      oc6h4o         c6h5oh
                     c6h5ch2oo      c6h5ch2o       c6h5cho
                     c6h5co         c2h3co         c2h5oh
                     pc2h4oh        sc2h4oh        c2h5o
                     c2h3oh         c10h22         c10h21
                     c10h21oo       c10h20ooh      c10h20
                     ooc10h20ooh    c10ket         c12h26
                     c12h25         c12h25oo       c12h24ooh
                     c12h24         ooc12h24ooh    c12ket
                     c16h34         c16h33         c16h33oo
                     c16h32ooh      c16h32         ooc16h32ooh
                     c16ket         c5h11co        jc8h16
                     chx            chxrad         chxro2
                     chxro          ochxrro        oc5h8cho
                     choco          chxdooh        chxdo
                     hooc5h8cho     cyc6h9         cyc6h8
                     c6h11          c4h6ooh        c2h3cho
                     c3h6cho        cychexene      c4h6
                     tc4h7          c4h7o          mch
                     mchrad         mch2o          mch2oo
                     mch2ooh        mch2qj         mchyo
                     chxch2         chxch2oo       chxjch2q
                     chxdch2        c6h11cho       c6h11co
                     c3h6co         c3h6coch3      mche
                     mchje          mchde          mchjde
                     c6h12cho       n              n2o
                     no             no2            c2h
                     c3h2           c4h2           c4h3
                     c4h4           ic4h5          c5h5
                     c6h5o          A1-            A2-
                     A1c2h-         A1c2h          A1c2h3
                     A2r5           A3-            A1
                     A2             A3             A4
                     ar""",
          reactions='all',
          initial_state=state(temperature=300.0, pressure=OneAtm))

#-------------------------------------------------------------------------------
# Species data
#-------------------------------------------------------------------------------

species(name='nc7h16',
        atoms='H:16 C:7',
        thermo=(NASA([300.00, 1391.00],
                     [-1.26836187E+00,  8.54355820E-02, -5.25346786E-05,
                       1.62945721E-08, -2.02394925E-12, -2.56586565E+04,
                       3.53732912E+01]),
                NASA([1391.00, 5000.00],
                     [ 2.22148969E+01,  3.47675750E-02, -1.18407129E-05,
                       1.83298478E-09, -1.06130266E-13, -3.42760081E+04,
                      -9.23040196E+01])))

species(name='o2',
        atoms='O:2',
        thermo=(NASA([200.00, 1000.00],
                     [ 3.78245636E+00, -2.99673416E-03,  9.84730201E-06,
                      -9.68129509E-09,  3.24372837E-12, -1.06394356E+03,
                       3.65767573E+00]),
                NASA([1000.00, 6000.00],
                     [ 3.66096065E+00,  6.56365811E-04, -1.41149627E-07,
                       2.05797935E-11, -1.29913436E-15, -1.21597718E+03,
                       3.41536279E+00])),
        note='rus-89')

species(name='n2',
        atoms='N:2',
        thermo=(NASA([200.00, 1000.00],
                     [ 3.53100528E+00, -1.23660988E-04, -5.02999433E-07,
                       2.43530612E-09, -1.40881235E-12, -1.04697628E+03,
                       2.96747038E+00]),
                NASA([1000.00, 6000.00],
                     [ 2.95257637E+00,  1.39690040E-03, -4.92631603E-07,
                       7.86010195E-11, -4.60755204E-15, -9.23948688E+02,
                       5.87188762E+00])),
        note='g-8-02')

species(name='co2',
        atoms='O:2 C:1',
        thermo=(NASA([200.00, 1000.00],
                     [ 2.35681300E+00,  8.98412990E-03, -7.12206320E-06,
                       2.45730080E-09, -1.42885480E-13, -4.83719710E+04,
                       9.90090350E+00]),
                NASA([1000.00, 6000.00],
                     [ 4.63651110E+00,  2.74145690E-03, -9.95897590E-07,
                       1.60386660E-10, -9.16198570E-15, -4.90249040E+04,
                      -1.93489550E+00])),
        note='l-7-88')

species(name='h2o',
        atoms='H:2 O:1',
        thermo=(NASA([200.00, 1000.00],
                     [ 4.19863520E+00, -2.03640170E-03,  6.52034160E-06,
                      -5.48792690E-09,  1.77196800E-12, -3.02937260E+04,
                      -8.49009010E-01]),
                NASA([1000.00, 6000.00],
                     [ 2.67703890E+00,  2.97318160E-03, -7.73768890E-07,
                       9.44335140E-11, -4.26899910E-15, -2.98858940E+04,
                       6.88255000E+00])),
        note='l-5-89')

species(name='co',
        atoms='O:1 C:1',
        thermo=(NASA([200.00, 1000.00],
                     [ 3.57953350E+00, -6.10353690E-04,  1.01681430E-06,
                       9.07005860E-10, -9.04424490E-13, -1.43440860E+04,
                       3.50840930E+00]),
                NASA([1000.00, 6000.00],
                     [ 3.04848590E+00,  1.35172810E-03, -4.85794050E-07,
                       7.88536440E-11, -4.69807460E-15, -1.42661170E+04,
                       6.01709770E+00])),
        note='rus-79')

species(name='h2',
        atoms='H:2',
        thermo=(NASA([200.00, 1000.00],
                     [ 2.34433112E+00,  7.98052075E-03, -1.94781510E-05,
                       2.01572094E-08, -7.37611761E-12, -9.17935173E+02,
                       6.83010238E-01]),
                NASA([1000.00, 6000.00],
                     [ 2.93286575E+00,  8.26608026E-04, -1.46402364E-07,
                       1.54100414E-11, -6.88804800E-16, -8.13065581E+02,
                      -1.02432865E+00])),
        note='tpis78')

species(name='oh',
        atoms='H:1 O:1',
        thermo=(NASA([200.00, 1000.00],
                     [ 3.99198424E+00, -2.40106655E-03,  4.61664033E-06,
                      -3.87916306E-09,  1.36319502E-12,  3.36889836E+03,
                      -1.03998477E-01]),
                NASA([1000.00, 6000.00],
                     [ 2.83853033E+00,  1.10741289E-03, -2.94000209E-07,
                       4.20698729E-11, -2.42289890E-15,  3.69780808E+03,
                       5.84494652E+00])),
        note='iu3-03')

species(name='h2o2',
        atoms='H:2 O:2',
        thermo=(NASA([200.00, 1000.00],
                     [ 4.31515149E+00, -8.47390622E-04,  1.76404323E-05,
                      -2.26762944E-08,  9.08950158E-12, -1.77067437E+04,
                       3.27373319E+00]),
                NASA([1000.00, 6000.00],
                     [ 4.57977305E+00,  4.05326003E-03, -1.29844730E-06,
                       1.98211400E-10, -1.13968792E-14, -1.80071775E+04,
                       6.64970694E-01])),
        note='t-8-03')

species(name='ho2',
        atoms='H:1 O:2',
        thermo=(NASA([200.00, 1000.00],
                     [ 4.30179807E+00, -4.74912097E-03,  2.11582905E-05,
                      -2.42763914E-08,  9.29225225E-12,  2.64018485E+02,
                       3.71666220E+00]),
                NASA([1000.00, 5000.00],
                     [ 4.17228741E+00,  1.88117627E-03, -3.46277286E-07,
                       1.94657549E-11,  1.76256905E-16,  3.10206839E+01,
                       2.95767672E+00])),
        note='t-1-09')

species(name='h',
        atoms='H:1',
        thermo=(NASA([200.00, 1000.00],
                     [ 2.50000000E+00,  0.00000000E+00,  0.00000000E+00,
                       0.00000000E+00,  0.00000000E+00,  2.54736600E+04,
                      -4.46682850E-01]),
                NASA([1000.00, 6000.00],
                     [ 2.50000000E+00,  0.00000000E+00,  0.00000000E+00,
                       0.00000000E+00,  0.00000000E+00,  2.54736600E+04,
                      -4.46682850E-01])),
        note='l-6-94')

species(name='o',
        atoms='O:1',
        thermo=(NASA([200.00, 1000.00],
                     [ 3.16826710E+00, -3.27931884E-03,  6.64306396E-06,
                      -6.12806624E-09,  2.11265971E-12,  2.91222592E+04,
                       2.05193346E+00]),
                NASA([1000.00, 6000.00],
                     [ 2.54363697E+00, -2.73162486E-05, -4.19029520E-09,
                       4.95481845E-12, -4.79553694E-16,  2.92260120E+04,
                       4.92229457E+00])),
        note='l-1-90')

species(name='ch3o',
        atoms='H:3 O:1 C:1',
        thermo=(NASA([200.00, 1000.00],
                     [ 3.71180502E+00, -2.80463306E-03,  3.76550971E-05,
                      -4.73072089E-08,  1.86588420E-11,  1.29569760E+03,
                       6.57240864E+00]),
                NASA([1000.00, 6000.00],
                     [ 4.75779238E+00,  7.44142474E-03, -2.69705176E-06,
                       4.38090504E-10, -2.63537098E-14,  3.78111940E+02,
                      -1.96680028E+00])),
        note='iu1-03')

species(name='ch2o',
        atoms='H:2 O:1 C:1',
        thermo=(NASA([200.00, 1000.00],
                     [ 4.79372312E+00, -9.90833322E-03,  3.73219990E-05,
                      -3.79285237E-08,  1.31772641E-11, -1.43791953E+04,
                       6.02798058E-01]),
                NASA([1000.00, 6000.00],
                     [ 3.16952665E+00,  6.19320560E-03, -2.25056366E-06,
                       3.65975660E-10, -2.20149458E-14, -1.45486831E+04,
                       6.04207898E+00])),
        note='t-5-11')

species(name='hco',
        atoms='H:1 O:1 C:1',
        thermo=(NASA([200.00, 1000.00],
                     [ 4.23754610E+00, -3.32075257E-03,  1.40030264E-05,
                      -1.34239995E-08,  4.37416208E-12,  3.87241185E+03,
                       3.30834869E+00]),
                NASA([1000.00, 6000.00],
                     [ 3.92001542E+00,  2.52279324E-03, -6.71004164E-07,
                       1.05615948E-10, -7.43798261E-15,  3.65342928E+03,
                       3.58077056E+00])),
        note='t-5-03')

species(name='ch',
        atoms='H:1 C:1',
        thermo=(NASA([200.00, 1000.00],
                     [ 3.48975830E+00,  3.24321600E-04, -1.68997510E-06,
                       3.16284200E-09, -1.40618030E-12,  7.06126460E+04,
                       2.08428410E+00]),
                NASA([1000.00, 6000.00],
                     [ 2.52093690E+00,  1.76536390E-03, -4.61476600E-07,
                       5.92896750E-11, -3.34745010E-15,  7.09467690E+04,
                       7.40518290E+00])),
        note='iu3-03')

species(name='ch2',
        atoms='H:2 C:1',
        thermo=(NASA([200.00, 1000.00],
                     [ 3.71757846E+00,  1.27391260E-03,  2.17347251E-06,
                      -3.48858500E-09,  1.65208866E-12,  4.58723866E+04,
                       1.75297945E+00]),
                NASA([1000.00, 6000.00],
                     [ 3.14631886E+00,  3.03671259E-03, -9.96474439E-07,
                       1.50483580E-10, -8.57335515E-15,  4.60412605E+04,
                       4.72341711E+00])),
        note='iu3-03')

species(name='ch3',
        atoms='H:3 C:1',
        thermo=(NASA([200.00, 1000.00],
                     [ 3.65717970E+00,  2.12659790E-03,  5.45838830E-06,
                      -6.61810030E-09,  2.46570740E-12,  1.64227160E+04,
                       1.67353540E+00]),
                NASA([1000.00, 6000.00],
                     [ 2.97812060E+00,  5.79785200E-03, -1.97558000E-06,
                       3.07297900E-10, -1.79174160E-14,  1.65095130E+04,
                       4.72247990E+00])),
        note='iu0702')

species(name='ch4',
        atoms='H:4 C:1',
        thermo=(NASA([200.00, 1000.00],
                     [ 5.14911468E+00, -1.36622009E-02,  4.91453921E-05,
                      -4.84246767E-08,  1.66603441E-11, -1.02465983E+04,
                      -4.63848842E+00]),
                NASA([1000.00, 6000.00],
                     [ 1.65326226E+00,  1.00263099E-02, -3.31661238E-06,
                       5.36483138E-10, -3.14696758E-14, -1.00095936E+04,
                       9.90506283E+00])),
        note='g-8-99')

species(name='c2h2',
        atoms='H:2 C:2',
        thermo=(NASA([200.00, 1000.00],
                     [ 8.08679682E-01,  2.33615762E-02, -3.55172234E-05,
                       2.80152958E-08, -8.50075165E-12,  2.64289808E+04,
                       1.39396761E+01]),
                NASA([1000.00, 6000.00],
                     [ 4.65878489E+00,  4.88396667E-03, -1.60828888E-06,
                       2.46974544E-10, -1.38605959E-14,  2.57594042E+04,
                      -3.99838194E+00])),
        note='g-1-91')

species(name='c2h3',
        atoms='H:3 C:2',
        thermo=(NASA([200.00, 1000.00],
                     [ 3.36377642E+00,  2.65765722E-04,  2.79620704E-05,
                      -3.72986942E-08,  1.51590176E-11,  3.44749589E+04,
                       7.91510092E+00]),
                NASA([1000.00, 6000.00],
                     [ 4.15026763E+00,  7.54021341E-03, -2.62997847E-06,
                       4.15974048E-10, -2.45407509E-14,  3.38566380E+04,
                       1.72812235E+00])),
        note='atct-a')

species(name='c2h4',
        atoms='H:4 C:2',
        thermo=(NASA([200.00, 1000.00],
                     [ 3.95920063E+00, -7.57051373E-03,  5.70989993E-05,
                      -6.91588352E-08,  2.69884190E-11,  5.08977598E+03,
                       4.09730213E+00]),
                NASA([1000.00, 6000.00],
                     [ 3.99182724E+00,  1.04833908E-02, -3.71721342E-06,
                       5.94628366E-10, -3.53630386E-14,  4.26865851E+03,
                      -2.69081762E-01])),
        note='g-1-00')

species(name='c2h5',
        atoms='H:5 C:2',
        thermo=(NASA([300.00, 1387.00],
                     [ 1.32730217E+00,  1.76656753E-02, -6.14926558E-06,
                      -3.01143466E-10,  4.38617775E-13,  1.34284028E+04,
                       1.71789216E+01]),
                NASA([1387.00, 5000.00],
                     [ 5.88784390E+00,  1.03076793E-02, -3.46844396E-06,
                       5.32499257E-10, -3.06512651E-14,  1.15065499E+04,
                      -8.49651771E+00])),
        note='-therm')

species(name='hcco',
        atoms='H:1 O:1 C:2',
        thermo=(NASA([200.00, 1000.00],
                     [ 1.87607969E+00,  2.21205418E-02, -3.58869325E-05,
                       3.05402541E-08, -1.01281069E-11,  2.01633840E+04,
                       1.36968290E+01]),
                NASA([1000.00, 6000.00],
                     [ 5.91479333E+00,  3.71408730E-03, -1.30137010E-06,
                       2.06473345E-10, -1.21476759E-14,  1.93596301E+04,
                      -5.50567269E+00])),
        note='t-4-09')

species(name='ch2co',
        atoms='H:2 O:1 C:2',
        thermo=(NASA([300.00, 1000.00],
                     [ 1.81422511E+00,  1.99008590E-02, -2.21416008E-05,
                       1.45028521E-08, -3.98877068E-12, -7.05394926E+03,
                       1.36079359E+01]),
                NASA([1000.00, 5000.00],
                     [ 5.35869367E+00,  6.95641586E-03, -2.64802637E-06,
                       4.65067592E-10, -3.08641820E-14, -7.90294013E+03,
                      -3.98525731E+00])))

species(name='ch3co',
        atoms='H:3 O:1 C:2',
        thermo=(NASA([200.00, 1000.00],
                     [ 4.03587050E+00,  8.77294870E-04,  3.07100100E-05,
                      -3.92475650E-08,  1.52968690E-11, -2.68207380E+03,
                       7.86176820E+00]),
                NASA([1000.00, 6000.00],
                     [ 5.31371650E+00,  9.17377930E-03, -3.32203860E-06,
                       5.39474560E-10, -3.24523680E-14, -3.64504140E+03,
                      -1.67575580E+00])),
        note='iu2-03')

species(name='ch3cho',
        atoms='H:4 O:1 C:2',
        thermo=(NASA([200.00, 1000.00],
                     [ 4.72945950E+00, -3.19328580E-03,  4.75349210E-05,
                      -5.74586110E-08,  2.19311120E-11, -2.15728780E+04,
                       4.10301590E+00]),
                NASA([1000.00, 6000.00],
                     [ 5.40411080E+00,  1.17230590E-02, -4.22631370E-06,
                       6.83724510E-10, -4.09848630E-14, -2.25931220E+04,
                      -3.48079170E+00])),
        note='l-8-88')

species(name='ch2cho',
        atoms='H:3 O:1 C:2',
        thermo=(NASA([200.00, 1000.00],
                     [ 2.79502600E+00,  1.01099472E-02,  1.61750645E-05,
                      -3.10303145E-08,  1.39436139E-11,  1.62944975E+02,
                       1.23646657E+01]),
                NASA([1000.00, 6000.00],
                     [ 6.53928338E+00,  7.80238629E-03, -2.76413612E-06,
                       4.42098906E-10, -2.62954290E-14, -1.18858659E+03,
                      -8.72091393E+00])),
        note='t03-10')

species(name='ch3o2',
        atoms='H:3 O:2 C:1',
        thermo=(NASA([300.00, 1000.00],
                     [ 3.62497097E+00,  3.59397933E-03,  2.26538097E-05,
                      -2.95391947E-08,  1.11977570E-11,  7.93040410E+01,
                       9.96382194E+00]),
                NASA([1000.00, 5000.00],
                     [ 4.80390863E+00,  9.95844638E-03, -3.85301026E-06,
                       6.84740497E-10, -4.58402955E-14, -7.47135460E+02,
                       1.45281400E+00])))

species(name='ch3oh',
        atoms='H:4 O:1 C:1',
        thermo=(NASA([200.00, 1000.00],
                     [ 5.65851051E+00, -1.62983419E-02,  6.91938156E-05,
                      -7.58372926E-08,  2.80427550E-11, -2.56119736E+04,
                      -8.97330508E-01]),
                NASA([1000.00, 6000.00],
                     [ 3.52726795E+00,  1.03178783E-02, -3.62892944E-06,
                       5.77448016E-10, -3.42182632E-14, -2.60028834E+04,
                       5.16758693E+00])),
        note='t06-02')

species(name='ch2oh',
        atoms='H:3 O:1 C:1',
        thermo=(NASA([200.00, 1000.00],
                     [ 4.47834367E+00, -1.35070310E-03,  2.78484980E-05,
                      -3.64869060E-08,  1.47907450E-11, -3.50072890E+03,
                       3.30913500E+00]),
                NASA([1000.00, 6000.00],
                     [ 5.09314370E+00,  5.94761260E-03, -2.06497460E-06,
                       3.23008173E-10, -1.88125902E-14, -4.03409640E+03,
                      -1.84691493E+00])),
        note='iu2-03')

species(name='ch3o2h',
        atoms='H:4 O:2 C:1',
        thermo=(NASA([200.00, 1000.00],
                     [ 2.90540897E+00,  1.74994735E-02,  5.28243630E-06,
                      -2.52827275E-08,  1.34368212E-11, -1.68894632E+04,
                       1.13741987E+01]),
                NASA([1000.00, 6000.00],
                     [ 7.76538058E+00,  8.61499712E-03, -2.98006935E-06,
                       4.68638071E-10, -2.75339255E-14, -1.82979984E+04,
                      -1.43992663E+01])),
        note='a-7-05')

species(name='c2h6',
        atoms='H:6 C:2',
        thermo=(NASA([200.00, 1000.00],
                     [ 4.29142572E+00, -5.50154901E-03,  5.99438458E-05,
                      -7.08466469E-08,  2.68685836E-11, -1.15222056E+04,
                       2.66678994E+00]),
                NASA([1000.00, 6000.00],
                     [ 4.04666411E+00,  1.53538802E-02, -5.47039485E-06,
                       8.77826544E-10, -5.23167531E-14, -1.24473499E+04,
                      -9.68698313E-01])),
        note='g-8-88')

species(name='c3h3',
        atoms='H:3 C:3',
        thermo=(NASA([300.00, 1000.00],
                     [ 4.75420000E+00,  1.10802800E-02,  2.79332300E-07,
                      -5.47921200E-09,  1.94962900E-12,  3.98888300E+04,
                       5.85454900E-01]),
                NASA([1000.00, 4000.00],
                     [ 8.83104700E+00,  4.35719500E-03, -4.10906700E-07,
                      -2.36872300E-10,  4.37652000E-14,  3.84742000E+04,
                      -2.17791900E+01])),
        note='-82489')

species(name='ic8h18',
        atoms='H:18 C:8',
        thermo=(NASA([300.00, 1396.00],
                     [-4.20868893E+00,  1.11440581E-01, -7.91346582E-05,
                       2.92406242E-08, -4.43743191E-12, -2.99446875E+04,
                       4.49521701E+01]),
                NASA([1396.00, 5000.00],
                     [ 2.71373590E+01,  3.79004890E-02, -1.29437358E-05,
                       2.00760372E-09, -1.16400580E-13, -4.07958177E+04,
                      -1.23277495E+02])),
        note='-therm')

species(name='c3h4',
        atoms='H:4 C:3',
        thermo=(NASA([300.00, 1400.00],
                     [ 2.53983100E+00,  1.63343700E-02, -1.76495000E-06,
                      -4.64736500E-09,  1.72913100E-12,  2.25124300E+04,
                       9.93570200E+00]),
                NASA([1400.00, 4000.00],
                     [ 9.77625600E+00,  5.30213800E-03, -3.70111800E-07,
                      -3.02638600E-10,  5.08958100E-14,  1.95497200E+04,
                      -3.07706100E+01])),
        note='101993')

species(name='c3h5',
        atoms='H:5 C:3',
        thermo=(NASA([300.00, 1397.00],
                     [-5.29131958E-01,  3.34559100E-02, -2.53401027E-05,
                       1.02865754E-08, -1.73258340E-12,  1.93834226E+04,
                       2.53067131E+01]),
                NASA([1397.00, 5000.00],
                     [ 8.45883958E+00,  1.12695483E-02, -3.83792864E-06,
                       5.94059119E-10, -3.43918030E-14,  1.63576092E+04,
                      -2.25809450E+01])),
        note='-therm')

species(name='c3h6',
        atoms='H:6 C:3',
        thermo=(NASA([300.00, 1388.00],
                     [ 3.94615444E-01,  2.89107662E-02, -1.54886808E-05,
                       3.88814209E-09, -3.37890352E-13,  1.06688164E+03,
                       2.19003736E+01]),
                NASA([1388.00, 5000.00],
                     [ 8.01595958E+00,  1.37023634E-02, -4.66249733E-06,
                       7.21254402E-10, -4.17370126E-14, -1.87821271E+03,
                      -2.00160668E+01])),
        note='-therm')

species(name='nc3h7',
        atoms='H:7 C:3',
        thermo=(NASA([300.00, 1000.00],
                     [ 1.92253700E+00,  2.47892700E-02,  1.81024900E-06,
                      -1.78326600E-08,  8.58299600E-12,  9.71328100E+03,
                       1.39927100E+01]),
                NASA([1000.00, 5000.00],
                     [ 7.97829100E+00,  1.57611300E-02, -5.17324300E-06,
                       7.44389200E-10, -3.82497800E-14,  7.57940200E+03,
                      -1.93561100E+01])),
        note='120186')

species(name='c4h8',
        atoms='H:8 C:4',
        thermo=(NASA([300.00, 1392.00],
                     [-8.31372089E-01,  4.52580978E-02, -2.93658559E-05,
                       1.00220436E-08, -1.43191680E-12, -1.57875035E+03,
                       2.95084236E+01]),
                NASA([1392.00, 5000.00],
                     [ 1.13508668E+01,  1.80617877E-02, -6.16093029E-06,
                       9.54652959E-10, -5.53089641E-14, -5.97871038E+03,
                      -3.64369438E+01])),
        note='-therm')

species(name='pc4h9',
        atoms='H:9 C:4',
        thermo=(NASA([300.00, 1395.00],
                     [-4.37779725E-01,  4.78972364E-02, -3.14023159E-05,
                       1.09786472E-08, -1.62010664E-12,  7.68945248E+03,
                       2.86852732E+01]),
                NASA([1395.00, 5000.00],
                     [ 1.21510082E+01,  1.94310717E-02, -6.61577950E-06,
                       1.02375136E-09, -5.92529707E-14,  3.17231942E+03,
                      -3.93425822E+01])),
        note='-therm')

species(name='c5h10',
        atoms='H:10 C:5',
        thermo=(NASA([300.00, 1392.00],
                     [-1.06223481E+00,  5.74218294E-02, -3.74486890E-05,
                       1.27364989E-08, -1.79609789E-12, -4.46546666E+03,
                       3.22739790E+01]),
                NASA([1392.00, 5000.00],
                     [ 1.45851539E+01,  2.24072471E-02, -7.63348025E-06,
                       1.18188966E-09, -6.84385139E-14, -1.00898205E+04,
                      -5.23683936E+01])),
        note='-therm')

species(name='nc3h7cho',
        atoms='H:8 O:1 C:4',
        thermo=(NASA([300.00, 1378.00],
                     [ 1.87415959E+00,  4.19240315E-02, -2.35148779E-05,
                       6.26913673E-09, -6.09443908E-13, -2.71032194E+04,
                       1.91568574E+01]),
                NASA([1378.00, 5000.00],
                     [ 1.35988068E+01,  1.81652474E-02, -6.17844458E-06,
                       9.55980208E-10, -5.53442958E-14, -3.15845348E+04,
                      -4.51790228E+01])),
        note='-therm')

species(name='nc3h7co',
        atoms='H:7 O:1 C:4',
        thermo=(NASA([300.00, 1380.00],
                     [ 2.67256826E+00,  3.71198825E-02, -2.06862859E-05,
                       5.48873888E-09, -5.35864183E-13, -8.58050888E+03,
                       1.64848950E+01]),
                NASA([1380.00, 5000.00],
                     [ 1.30026331E+01,  1.63104877E-02, -5.57642899E-06,
                       8.65670629E-10, -5.02255667E-14, -1.25523385E+04,
                      -4.02608515E+01])),
        note='-therm')

species(name='c7h15-2',
        atoms='H:15 C:7',
        thermo=(NASA([300.00, 1382.00],
                     [-3.79155767E-02,  7.56726570E-02, -4.07473634E-05,
                       9.32678943E-09, -4.92360745E-13, -2.35605303E+03,
                       3.37321506E+01]),
                NASA([1382.00, 5000.00],
                     [ 2.16368842E+01,  3.23324804E-02, -1.09273807E-05,
                       1.68357060E-09, -9.71774091E-14, -1.05873616E+04,
                      -8.52209653E+01])))

species(name='c7h15o2-2',
        atoms='H:15 O:2 C:7',
        thermo=(NASA([300.00, 1392.00],
                     [ 1.51378168E+00,  8.85572745E-02, -5.92457147E-05,
                       2.11801862E-08, -3.20741722E-12, -2.19818400E+04,
                       2.76255370E+01]),
                NASA([1392.00, 5000.00],
                     [ 2.52622017E+01,  3.46652053E-02, -1.18812593E-05,
                       1.84687322E-09, -1.07234165E-13, -3.05051074E+04,
                      -1.00675588E+02])),
        note='-therm')

species(name='c7h14ooh2-4',
        atoms='H:15 O:2 C:7',
        thermo=(NASA([300.00, 1389.00],
                     [ 1.62083964E+00,  8.83636215E-02, -5.64527235E-05,
                       1.76325999E-08, -2.10369342E-12, -1.57072842E+04,
                       2.97815441E+01]),
                NASA([1389.00, 5000.00],
                     [ 2.73843966E+01,  3.17800796E-02, -1.07557689E-05,
                       1.65881427E-09, -9.58200506E-14, -2.49404488E+04,
                      -1.09739277E+02])),
        note='8-thrm')

species(name='c7h14ooh2-4o2',
        atoms='H:15 O:4 C:7',
        thermo=(NASA([300.00, 1392.00],
                     [ 3.09603698E+00,  9.93182239E-02, -6.69045928E-05,
                       2.24191270E-08, -2.97843662E-12, -3.52824732E+04,
                       2.43873873E+01]),
                NASA([1392.00, 5000.00],
                     [ 3.27436761E+01,  3.30060143E-02, -1.14146253E-05,
                       1.78556283E-09, -1.04147126E-13, -4.58332974E+04,
                      -1.35817581E+02])),
        note='-98-tm')

species(name='nc7ket24',
        atoms='H:14 O:3 C:7',